.MODEL BC327 PNP (IS=10.0029F BF=402.001 NF=994.875M VAF=100 IKF=991.671M
+ ISE=1.218485E-022 NE=2.14585 BR=101.214M IKR=1.00622 ISC=1.218700E-019
+ RE=360.928M RC=743.15M CJE=2P MJE=500M CJC=50.3851P VJC=700M MJC=558.066M
+ TF=501.007P XTF=499.987M VTF=10 ITF=10.0724M TR=10N )